! === module MOM_domains ===
NIGLOBAL = 1600                 !
                                ! The total number of thickness grid points in the x-direction in the physical
                                ! domain. With STATIC_MEMORY_ this is set in MOM_memory.h at compile time.
NJGLOBAL = 600                  !
                                ! The total number of thickness grid points in the y-direction in the physical
                                ! domain. With STATIC_MEMORY_ this is set in MOM_memory.h at compile time.

! === module MOM ===
ENABLE_THERMODYNAMICS = False   !   [Boolean] default = True
                                ! If true, Temperature and salinity are used as state variables.
ADIABATIC = True                !   [Boolean] default = False
                                ! There are no diapycnal mass fluxes if ADIABATIC is true. This assumes that KD
                                ! = KDML = 0.0 and that there is no buoyancy forcing, but makes the model faster
                                ! by eliminating subroutine calls.
USE_REGRIDDING = False          !   [Boolean] default = False
                                ! If True, use the ALE algorithm (regridding/remapping). If False, use the
                                ! layered isopycnal algorithm.
DT = 540.0                      !   [s]
                                ! The (baroclinic) dynamics time step.  The time-step that is actually used will
                                ! be an integer fraction of the forcing time-step (DT_FORCING in ocean-only mode
                                ! or the coupling timestep in coupled mode.)
!DTBT_RESET_PERIOD = 0           !   [s] default = 2400.0
                                ! The period between recalculations of DTBT (if DTBT <= 0). If DTBT_RESET_PERIOD
                                ! is negative, DTBT is set based only on information available at
                                ! initialization.  If 0, DTBT will be set every dynamics time step. The default
                                ! is set by DT_THERM.  This is only used if SPLIT is true.
SAVE_INITIAL_CONDS = True       !   [Boolean] default = False
                                ! If true, write the initial conditions to a file given by IC_OUTPUT_FILE.
!VERBOSITY = 4
! === module MOM_fixed_initialization ===
INPUTDIR = "INPUT"              ! default = "."
                                ! The directory in which input files are found.

! === module MOM_grid_init ===
GRID_CONFIG = "cartesian"       !
                                ! A character string that determines the method for defining the horizontal
                                ! grid.  Current options are:
                                !     mosaic - read the grid from a mosaic (supergrid)
                                !              file set by GRID_FILE.
                                !     cartesian - use a (flat) Cartesian grid.
                                !     spherical - use a simple spherical grid.
                                !     mercator - use a Mercator spherical grid.
AXIS_UNITS = "k"                ! default = "degrees"
                                ! The units for the Cartesian axes. Valid entries are:
                                !     degrees - degrees of latitude and longitude
                                !     m - meters
                                !     k - kilometers
SOUTHLAT = -1500.0              !   [k]
                                ! The southern latitude of the domain or the equivalent starting value for the
                                ! y-axis.
LENLAT = 3000.0                 !   [k]
                                ! The latitudinal or y-direction length of the domain.
LENLON = 8000.0                 !   [k]
                                ! The longitudinal or x-direction length of the domain.
TOPO_CONFIG = "flat"            !
                                ! This specifies how bathymetry is specified:
                                !     file - read bathymetric information from the file
                                !       specified by (TOPO_FILE).
                                !     flat - flat bottom set to MAXIMUM_DEPTH.
                                !     bowl - an analytically specified bowl-shaped basin
                                !       ranging between MAXIMUM_DEPTH and MINIMUM_DEPTH.
                                !     spoon - a similar shape to 'bowl', but with an vertical
                                !       wall at the southern face.
                                !     halfpipe - a zonally uniform channel with a half-sine
                                !       profile in the meridional direction.
                                !     bbuilder - build topography from list of functions.
                                !     benchmark - use the benchmark test case topography.
                                !     Neverworld - use the Neverworld test case topography.
                                !     DOME - use a slope and channel configuration for the
                                !       DOME sill-overflow test case.
                                !     ISOMIP - use a slope and channel configuration for the
                                !       ISOMIP test case.
                                !     DOME2D - use a shelf and slope configuration for the
                                !       DOME2D gravity current/overflow test case.
                                !     Kelvin - flat but with rotated land mask.
                                !     seamount - Gaussian bump for spontaneous motion test case.
                                !     dumbbell - Sloshing channel with reservoirs on both ends.
                                !     shelfwave - exponential slope for shelfwave test case.
                                !     Phillips - ACC-like idealized topography used in the Phillips config.
                                !     dense - Denmark Strait-like dense water formation and overflow.
                                !     USER - call a user modified routine.
MINIMUM_DEPTH = 10.0            !   [m] default = 0.0
                                ! The minimum depth of the ocean.
MAXIMUM_DEPTH = 5000.0          !   [m]
                                ! The maximum depth of the ocean.
ROTATION = "betaplane"          ! default = "2omegasinlat"
                                ! This specifies how the Coriolis parameter is specified:
                                !     2omegasinlat - Use twice the planetary rotation rate
                                !       times the sine of latitude.
                                !     betaplane - Use a beta-plane or f-plane.
                                !     USER - call a user modified routine.
F_0 = 8.362744441998251E-05     !   [s-1] default = 0.0
                                ! The reference value of the Coriolis parameter with the betaplane option.
BETA = 1.872567702372765E-11    !   [m-1 s-1] default = 0.0
                                ! The northward gradient of the Coriolis parameter with the betaplane option.

! === module MOM_verticalGrid ===
! Parameters providing information about the vertical grid.
NK = 2                          !   [nondim]
                                ! The number of model layers.

! === module MOM_tracer_flow_control ===

! === module MOM_coord_initialization ===
COORD_CONFIG = "gprime"         ! default = "none"
                                ! This specifies how layers are to be defined:
                                !     ALE or none - used to avoid defining layers in ALE mode
                                !     file - read coordinate information from the file
                                !       specified by (COORD_FILE).
                                !     BFB - Custom coords for buoyancy-forced basin case
                                !       based on SST_S, T_BOT and DRHO_DT.
                                !     linear - linear based on interfaces not layers
                                !     layer_ref - linear based on layer densities
                                !     ts_ref - use reference temperature and salinity
                                !     ts_range - use range of temperature and salinity
                                !       (T_REF and S_REF) to determine surface density
                                !       and GINT calculate internal densities.
                                !     gprime - use reference density (RHO_0) for surface
                                !       density and GINT calculate internal densities.
                                !     ts_profile - use temperature and salinity profiles
                                !       (read from COORD_FILE) to set layer densities.
                                !     USER - call a user modified routine.
GINT = 0.0185501629724273       !   [m s-2]
                                ! The reduced gravity across internal interfaces.

! === module MOM_state_initialization ===
THICKNESS_CONFIG = "file"        ! default = "uniform"
                                ! A string that determines how the initial layer thicknesses are specified for a
                                ! new run:
                                !     file - read interface heights from the file specified
                                !     thickness_file - read thicknesses from the file specified
                                !       by (THICKNESS_FILE).
                                !     coord - determined by ALE coordinate.
                                !     uniform - uniform thickness layers evenly distributed
                                !       between the surface and MAXIMUM_DEPTH.
                                !     list - read a list of positive interface depths.
                                !     jet - an asymmetric zonal jet.
                                !     USER - call a user modified routine.
THICKNESS_FILE = "jet_ic.nc"
ADJUST_THICKNESS = True         !   [Boolean] default = False
                                ! If true, all mass below the bottom removed if the topography is shallower than
                                ! the thickness input file would indicate.
VELOCITY_CONFIG = "file"         ! default = "zero"
VELOCITY_FILE = "jet_ic.nc"
! === module MOM_diag_mediator ===

! === module MOM_lateral_mixing_coeffs ===

! === module MOM_set_visc ===
BOTTOMDRAGLAW = True            !   [Boolean] default = True
                                ! If true, the bottom stress is calculated with a drag law of the form
                                ! c_drag*|u|*u. The velocity magnitude may be an assumed value or it may be
                                ! based on the actual velocity in the bottommost HBBL, depending on LINEAR_DRAG.
!LINEAR_DRAG = True              !   [Boolean] default = False
                                ! If LINEAR_DRAG and BOTTOMDRAGLAW are defined the drag law is
                                ! cdrag*DRAG_BG_VEL*u.
HBBL = 10.0                     !   [m]
                                ! The thickness of a bottom boundary layer with a viscosity of KVBBL if
                                ! BOTTOMDRAGLAW is not defined, or the thickness over which near-bottom
                                ! velocities are averaged for the drag law if BOTTOMDRAGLAW is defined but
                                ! LINEAR_DRAG is not.
DRAG_BG_VEL = 0.1               !   [m s-1] default = 0.0
                                ! DRAG_BG_VEL is either the assumed bottom velocity (with LINEAR_DRAG) or an
                                ! unresolved  velocity that is combined with the resolved velocity to estimate
                                ! the velocity magnitude.  DRAG_BG_VEL is only used when BOTTOMDRAGLAW is
                                ! defined.
BBL_THICK_MIN = 0.1             !   [m] default = 0.0
                                ! The minimum bottom boundary layer thickness that can be used with
                                ! BOTTOMDRAGLAW. This might be Kv/(cdrag*drag_bg_vel) to give Kv as the minimum
                                ! near-bottom viscosity.
KV = 1.0E-04                    !   [m2 s-1]
                                ! The background kinematic viscosity in the interior. The molecular value, ~1e-6
                                ! m2 s-1, may be used.

! === module MOM_thickness_diffuse ===

! === module MOM_dynamics_split_RK2 ===

! === module MOM_continuity ===

! === module MOM_continuity_PPM ===

! === module MOM_CoriolisAdv ===
CORIOLIS_SCHEME = "ARAKAWA_HSU90" ! default = "SADOURNY75_ENERGY"
                                ! CORIOLIS_SCHEME selects the discretization for the Coriolis terms. Valid
                                ! values are:
                                !    SADOURNY75_ENERGY - Sadourny, 1975; energy cons.
                                !    ARAKAWA_HSU90     - Arakawa & Hsu, 1990
                                !    SADOURNY75_ENSTRO - Sadourny, 1975; enstrophy cons.
                                !    ARAKAWA_LAMB81    - Arakawa & Lamb, 1981; En. + Enst.
                                !    ARAKAWA_LAMB_BLEND - A blend of Arakawa & Lamb with
                                !                         Arakawa & Hsu and Sadourny energy
BOUND_CORIOLIS = True           !   [Boolean] default = False
                                ! If true, the Coriolis terms at u-points are bounded by the four estimates of
                                ! (f+rv)v from the four neighboring v-points, and similarly at v-points.  This
                                ! option would have no effect on the SADOURNY Coriolis scheme if it were
                                ! possible to use centered difference thickness fluxes.
KE_SCHEME = "KE_ARAKAWA"        ! default = "KE_ARAKAWA"
                                ! KE_SCHEME selects the discretization for acceleration due to the kinetic
                                ! energy gradient. Valid values are:
                                !    KE_ARAKAWA, KE_SIMPLE_GUDONOV, KE_GUDONOV
! === module MOM_PressureForce ===

! === module MOM_PressureForce_FV ===

! === module MOM_hor_visc ===
LAPLACIAN = True                !   [Boolean] default = False
                                ! If true, use a Laplacian horizontal viscosity.
AH_VEL_SCALE = 7.5E-04          !   [m s-1] default = 0.0
                                ! The velocity scale which is multiplied by the cube of the grid spacing to
                                ! calculate the biharmonic viscosity. The final viscosity is the largest of this
                                ! scaled viscosity, the Smagorinsky and Leith viscosities, and AH.
SMAGORINSKY_AH = True           !   [Boolean] default = False
                                ! If true, use a biharmonic Smagorinsky nonlinear eddy viscosity.
SMAG_BI_CONST = 0.015           !   [nondim] default = 0.0
                                ! The nondimensional biharmonic Smagorinsky constant, typically 0.015 - 0.06.
USE_KH_BG_2D = True             !   [Boolean] default = False
                                ! If true, read a file containing 2-d background harmonic viscosities. The final
                                ! viscosity is the maximum of the other terms and this background value.
SPONGE_UV = True                !   [Boolean] default = False
                                ! Apply sponges in u and v.
SPONGE_UV_DAMPING_FILE = "jet_ic.nc" ! default = "uv_sponge.nc"
                                ! The name of the file with sponge damping rates for the velocity variables.
SPONGE_U_VAR = "u"              ! default = "UVEL"
                                ! The name of the zonal velocity variable in SPONGE_UV_STATE_FILE.
SPONGE_V_VAR = "v"              ! default = "VVEL"
                                ! The name of the vertical velocity variable in SPONGE_UV_STATE_FILE.
KH_BG_2D_FILENAME = "jet_ic.nc" ! default = "KH_background_2d.nc"
                                ! The filename containing a 2d map of "Kh".

! === module MOM_vert_friction ===
DIRECT_STRESS = True            !   [Boolean] default = False
                                ! If true, the wind stress is distributed over the topmost HMIX_STRESS of fluid
                                ! (like in HYCOM), and KVML may be set to a very small value.
HARMONIC_VISC = True            !   [Boolean] default = False
                                ! If true, use the harmonic mean thicknesses for calculating the vertical
                                ! viscosity.
HMIX_FIXED = 20.0               !   [m]
                                ! The prescribed depth over which the near-surface viscosity and diffusivity are
                                ! elevated when the bulk mixed layer is not used.
KVML = 0.01                     !   [m2 s-1] default = 1.0E-04
                                ! The kinematic viscosity in the mixed layer.  A typical value is ~1e-2 m2 s-1.
                                ! KVML is not used if BULKMIXEDLAYER is true.  The default is set by KV.
MAXVEL = 6.0                    !   [m s-1] default = 3.0E+08
                                ! The maximum velocity allowed before the velocity components are truncated.

! === module MOM_barotropic ===
BOUND_BT_CORRECTION = True      !   [Boolean] default = False
                                ! If true, the corrective pseudo mass-fluxes into the barotropic solver are
                                ! limited to values that require less than maxCFL_BT_cont to be accommodated.
BT_PROJECT_VELOCITY = True      !   [Boolean] default = False
                                ! If true, step the barotropic velocity first and project out the velocity
                                ! tendency by 1+BEBT when calculating the transport.  The default (false) is to
                                ! use a predictor continuity step to find the pressure field, and then to do a
                                ! corrector continuity step using a weighted average of the old and new
                                ! velocities, with weights of (1-BEBT) and BEBT.
SADOURNY = False                !   [Boolean] default = True
                                ! If true, the Coriolis terms are discretized with the Sadourny (1975) energy
                                ! conserving scheme, otherwise the Arakawa & Hsu scheme is used.  If the
                                ! internal deformation radius is not resolved, the Sadourny scheme should
                                ! probably be used.
BEBT = 0.2                      !   [nondim] default = 0.1
                                ! BEBT determines whether the barotropic time stepping uses the forward-backward
                                ! time-stepping scheme or a backward Euler scheme. BEBT is valid in the range
                                ! from 0 (for a forward-backward treatment of nonrotating gravity waves) to 1
                                ! (for a backward Euler treatment). In practice, BEBT must be greater than about
                                ! 0.05.
DTBT = -0.9                     !   [s or nondim] default = -0.98
                                ! The barotropic time step, in s. DTBT is only used with the split explicit time
                                ! stepping. To set the time step automatically based the maximum stable value
                                ! use 0, or a negative value gives the fraction of the stable value. Setting
                                ! DTBT to 0 is the same as setting it to -0.98. The value of DTBT that will
                                ! actually be used is an integer fraction of DT, rounding down.

! === module MOM_diagnostics ===

! === module MOM_diabatic_driver ===
! The following parameters are used for diabatic processes.
! === module MOM_set_diffusivity ===

! === module MOM_bkgnd_mixing ===
! Adding static vertical background mixing coefficients

! === module MOM_diabatic_aux ===
! The following parameters are used for auxiliary diabatic processes.

! === module MOM_tracer_advect ===

! === module MOM_tracer_hor_diff ===

! === module MOM_sum_output ===
DATE_STAMPED_STDOUT = False     !   [Boolean] default = True
                                ! If true, use dates (not times) in messages to stdout
READ_DEPTH_LIST = True          !   [Boolean] default = False
                                ! Read the depth list from a file if it exists or create that file otherwise.
DEPTH_LIST_MIN_INC = 1.0E-06    !   [m] default = 1.0E-10
                                ! The minimum increment between the depths of the entries in the depth-list
                                ! file.
REQUIRE_DEPTH_LIST_CHECKSUMS = False !   [Boolean] default = True
                                ! Require that matching checksums be in Depth_list.nc when reading the file.
UPDATE_DEPTH_LIST_CHECKSUMS = True !   [Boolean] default = False
                                ! Automatically update the Depth_list.nc file if the checksums are missing or do
                                ! not match current values.

! === module ocean_stochastics_init ===

! === module MOM_surface_forcing ===
VARIABLE_WINDS = False          !   [Boolean] default = True
                                ! If true, the winds vary in time after the initialization.
VARIABLE_BUOYFORCE = False      !   [Boolean] default = True
                                ! If true, the buoyancy forcing varies in time after the initialization of the
                                ! model.
WIND_CONFIG = "zero"            ! default = "zero"
                                ! The character string that indicates how wind forcing is specified. Valid
                                ! options include (file), (2gyre), (1gyre), (gyres), (zero), and (USER).
! === module MOM_main (MOM_driver) ===
DAYMAX = 7.2E+04                !   [days]
                                ! The final time of the whole simulation, in units of TIMEUNIT seconds.  This
                                ! also sets the potential end time of the present run segment if the end time is
                                ! not set via ocean_solo_nml in input.nml.
RESTART_CONTROL = 3             ! default = 1
                                ! An integer whose bits encode which restart files are written. Add 2 (bit 1)
                                ! for a time-stamped file, and odd (bit 0) for a non-time-stamped file. A
                                ! non-time-stamped restart file is saved at the end of the run segment for any
                                ! non-negative value.
RESTINT = 3600.0                !   [days] default = 0.0
                                ! The interval between saves of the restart file in units of TIMEUNIT.  Use 0
                                ! (the default) to not save incremental restart files at all.
